# Packages
 &PACKAGES
 useCAL         = .TRUE.,
 useEXF         = .FALSE.,
 useSEAICE      = .FALSE.,
 useKPP         = .TRUE.,
 useFRAZIL      = .TRUE.,
 useDiagnostics     = .FALSE.,
 /
