VERSION:
EXPID:  DYAMOND_c1440_llc2160
EXPDSC: DYAMOND_c1440_llc2160
EXPSRC: Heracles-5_3
ServerSizeSplit:
CollectionWriteSplit:

COLLECTIONS:
##           'geosgcm_fcst'
             'geosgcm_prog'
             'geosgcm_surf'
             'geosgcm_moist'
             'geosgcm_turb'
             'geosgcm_gwd'
             'geosgcm_tend'
             'geosgcm_budi'
             'geosgcm_buda'
             'geosgcm_landice'
             'geosgcm_meltwtr'
             'geosgcm_snowlayer'
###             'geosgcm_tracer'
             'tavg2d_aer_x'
             'tavg3d_aer_p'
# DYAMOND
             'const_2d_asm_Mx'
             'inst_15mn_2d_prs_Mx'
             'inst_15mn_2d_asm_Mx'
             'tavg_15mn_2d_flx_Mx'
             'inst_01hr_3d_U_Mv'
             'inst_01hr_3d_V_Mv'
             'inst_01hr_3d_W_Mv'
             'inst_01hr_3d_H_Mv'
             'inst_01hr_3d_DELP_Mv'
             'inst_01hr_3d_P_Mv'
             'inst_01hr_3d_T_Mv'
             'inst_01hr_3d_OMEGA_Mv'
             'inst_01hr_3d_QV_Mv'
             'inst_01hr_3d_QI_Mv'
             'inst_01hr_3d_QL_Mv'
             'inst_01hr_3d_QR_Mv'
             'inst_01hr_3d_QS_Mv'
             'inst_01hr_3d_QG_Mv'
             'inst_01hr_3d_RI_Mv'
             'inst_01hr_3d_RL_Mv'
             'inst_01hr_3d_FCLD_Mv'
             'inst_01hr_3d_DTHDT_Mv'
             'inst_01hr_3d_DTHDTCN_Mv'
             'inst_01hr_3d_CO_Mv'
             'inst_01hr_3d_CO2_Mv'
             'inst_01hr_3d_TR_Mv'
             'inst_01hr_3d_CNVMFD_Mv'
             'inst_01hr_3d_CNVMFC_Mv'
             'tavg_01hr_3d_WU_Mv'
             'tavg_01hr_3d_WV_Mv'
             'tavg_01hr_3d_W_Mv'
             'tavg_01hr_3d_U_Mv'
             'tavg_01hr_3d_V_Mv'
             'tavg_01hr_3d_H_Mv'
             'tavg_01hr_3d_TR_Mv'
             'tavg_01hr_3d_CNVMFD_Mv'
             'tavg_01hr_3d_CNVMFC_Mv'
# Regrid 2Ds
             'const_2d_asm_Nx'
             'inst_15mn_2d_prs_Nx'
             'inst_15mn_2d_asm_Nx'
             'tavg_15mn_2d_flx_Nx'
             ::

##################################################
# The GRID_LABELS section must be after the main #
#  list of COLLECTIONS for scripting purposes.   #
##################################################

GRID_LABELS: PC720x361-DC
             PC1440x721-DC
             PC2880x1441-DC
             PC5760x2881-DC
             PC11520x5761-DC
::

PC720x361-DC.GRID_TYPE: LatLon
PC720x361-DC.IM_WORLD: 720
PC720x361-DC.JM_WORLD: 361
PC720x361-DC.POLE: PC
PC720x361-DC.DATELINE: DC
PC720x361-DC.LM: 181

PC1440x721-DC.GRID_TYPE: LatLon
PC1440x721-DC.IM_WORLD: 1440
PC1440x721-DC.JM_WORLD: 721
PC1440x721-DC.POLE: PC
PC1440x721-DC.DATELINE: DC
PC1440x721-DC.LM: 181

PC2880x1441-DC.GRID_TYPE: LatLon
PC2880x1441-DC.IM_WORLD: 2880
PC2880x1441-DC.JM_WORLD: 1441
PC2880x1441-DC.POLE: PC
PC2880x1441-DC.DATELINE: DC
PC2880x1441-DC.LM: 181

PC5760x2881-DC.GRID_TYPE: LatLon
PC5760x2881-DC.IM_WORLD: 5760
PC5760x2881-DC.JM_WORLD: 2881
PC5760x2881-DC.POLE: PC
PC5760x2881-DC.DATELINE: DC
PC5760x2881-DC.LM: 181

PC11520x5761-DC.GRID_TYPE: LatLon
PC11520x5761-DC.IM_WORLD: 11520
PC11520x5761-DC.JM_WORLD: 5761
PC11520x5761-DC.POLE: PC
PC11520x5761-DC.DATELINE: DC
PC11520x5761-DC.LM: 181

  geosgcm_dyn.template:  '%y4%m2%d2_%h2%n2z.nc4',
  geosgcm_dyn.archive:   '%c/Y%y4',
  geosgcm_dyn.format:    'CFIO',
  geosgcm_dyn.frequency:  003000,
  geosgcm_dyn.grid_label: PC1440x721-DC
  geosgcm_dyn.fields:    'DYNTIMER'  , 'DYN'      ,
#                        'DBZ_MAX'   , 'MOIST'    ,
#                        'QRAIN'     , 'MOIST'    ,
#                        'QSNOW'     , 'MOIST'    ,
#                        'QGRAUPEL'  , 'MOIST'    ,
                          ::

  geosgcm_fcst.template:  '%y4%m2%d2_%h2%n2z.nc4',
  geosgcm_fcst.archive:   '%c/Y%y4',
  geosgcm_fcst.format:    'CFIO',
  geosgcm_fcst.frequency:  060000,
  geosgcm_fcst.duration:   000000,
  geosgcm_fcst.grid_label: PC720x361-DC,
  geosgcm_fcst.vscale:     100.0,
  geosgcm_fcst.vunit:     'hPa',
  geosgcm_fcst.vvars:     'log(PLE)' , 'DYN'          ,
  geosgcm_fcst.levels:     1000 975 950 925 900 850 800 750 700 600 500 400 300 250 200 150 100,
  geosgcm_fcst.fields:    'PHIS'     , 'AGCM'         ,
                          'SLP'      , 'DYN'          ,
                          'U;V'      , 'DYN'          ,
                          'T'        , 'DYN'          ,
                          'PS'       , 'DYN'          ,
                          'ZLE'      , 'DYN'          , 'H'   ,
                          'OMEGA'    , 'DYN'          ,
                          'Q'        , 'MOIST'        , 'QV'  ,
                          'RH2'      , 'MOIST'        , 'RH'  ,
                          ::

  geosgcm_baro.template:  '%y4%m2%d2_%h2%n2z.nc4',
  geosgcm_baro.archive:   '%c/Y%y4',
  geosgcm_baro.format:    'CFIO',
  geosgcm_baro.frequency:  060000,
  geosgcm_baro.grid_label: PC720x361-DC
  geosgcm_baro.vscale:     100.0,
  geosgcm_baro.vunit:     'hPa',
  geosgcm_baro.vvars:     'log(PLE)' , 'DYN'          ,
  geosgcm_baro.levels:     1000 975 950 925 900 875 850 825 800 775 750 725 700 650 600 550 500 450 400 350 300 250 200 150 100 70 50 40 30 20 10 7 5 4 3 2 1 0.7 0.5 0.4 0.3 0.2 0.1 0.07 0.05 0.04 0.03 0.02,
  geosgcm_baro.fields:    'SLP'      , 'DYN'          ,
                          'U;V'      , 'DYN'          ,
                          'T'        , 'DYN'          ,
                          'PS'       , 'DYN'          ,
                          'ZLE'      , 'DYN'          , 'H'   ,
                          'OMEGA'    , 'DYN'          ,
                          ::


  geosgcm_prog.template:  '%y4%m2%d2_%h2%n2z.nc4',
  geosgcm_prog.archive:   '%c/Y%y4',
  geosgcm_prog.format:    'CFIO',
  geosgcm_prog.frequency:  060000,
  geosgcm_prog.grid_label: PC720x361-DC
  geosgcm_prog.vscale:     100.0,
  geosgcm_prog.vunit:     'hPa',
  geosgcm_prog.vvars:     'log(PLE)' , 'DYN'          ,
  geosgcm_prog.levels:     1000 975 950 925 900 875 850 825 800 775 750 725 700 650 600 550 500 450 400 350 300 250 200 150 100 70 50 40 30 20 10 7 5 4 3 2 1 0.7 0.5 0.4 0.3 0.2 0.1 0.07 0.05 0.04 0.03 0.02,
  geosgcm_prog.fields:    'PHIS'     , 'AGCM'         ,
                          'SLP'      , 'DYN'          ,
                          'U;V'      , 'DYN'          ,
                          'T'        , 'DYN'          ,
                          'PS'       , 'DYN'          ,
                          'ZLE'      , 'DYN'          , 'H'   ,
                          'OMEGA'    , 'DYN'          ,
                          'Q'        , 'MOIST'        , 'QV'  ,
                          'QITOT'    , 'AGCM'         , 'QI'  ,
                          'QLTOT'    , 'AGCM'         , 'QL'  ,
                          'RH2'      , 'MOIST'        , 'RH'  ,
                          'O3'       , 'CHEMISTRY'    ,
                          ::

  geosgcm_surf.template:  '%y4%m2%d2_%h2%n2z.nc4',
  geosgcm_surf.archive:   '%c/Y%y4',
  geosgcm_surf.format:    'CFIO',
  geosgcm_surf.mode:      'time-averaged',
  geosgcm_surf.frequency:  010000,
  geosgcm_surf.ref_time:   210000,
  geosgcm_surf.grid_label: PC720x361-DC
  geosgcm_surf.fields:    'PHIS'          , 'AGCM'     ,
                          'SGH'           , 'AGCM'     ,
                          'VARFLT'        , 'AGCM'     ,
                          'TROPP_EPV'     , 'AGCM'     ,  'TROPPV' ,
                          'TROPP_THERMAL' , 'AGCM'     ,  'TROPPT' ,
                          'TROPP_BLENDED' , 'AGCM'     ,  'TROPPB' ,
                          'TROPT'         , 'AGCM'     ,
                          'TROPQ'         , 'AGCM'     ,
                          'QVFILL'   , 'AGCM'          ,
                          'OXFILL'   , 'AGCM'          ,
                          'TA'       , 'DYN'           ,
                          'QA'       , 'DYN'           ,
                          'US;VS'    , 'DYN'           ,
                          'PS'       , 'DYN'           ,
                          'SPEED'    , 'DYN'           ,
                          'ZPBL'     , 'TURBULENCE'    ,  'PBLH'   ,
                          'TS'       , 'SURFACE'       ,
                          'QS'       , 'SURFACE'       ,
                          'THAT'     , 'SURFACE'       ,
                          'QHAT'     , 'SURFACE'       ,
                          'CU2DRAINMOVE' , 'MOIST'     ,
                          'CU2DSNOWMOVE' , 'MOIST'     ,
                          'RAS_TIME' , 'MOIST'         ,
                          'CN_PRCP'  , 'MOIST'         , 'CNPRCP' ,
                          'LS_PRCP'  , 'MOIST'         , 'LSPRCP' ,
                          'AN_PRCP'  , 'MOIST'         , 'ANPRCP' ,
                          'LS_PRCP+CU2DRAINMOVE+CU2DSNOWMOVE' , 'MOIST' , 'LSORIG' ,
                          'CN_PRCP-CU2DRAINMOVE-CU2DSNOWMOVE' , 'MOIST' , 'CNORIG' ,
                          'SNO'      , 'MOIST'         ,
                          'PLS'      , 'MOIST'         ,
                          'PCU'      , 'MOIST'         ,
                          'LWP'      , 'MOIST'         ,
                          'CCWP'     , 'MOIST'         ,
                          'TAUTT'    , 'SOLAR'         ,
                          'TAULO'    , 'SOLAR'         ,
                          'TAUMD'    , 'SOLAR'         ,
                          'TAUHI'    , 'SOLAR'         ,
                          'CLDTT'    , 'SOLAR'         ,
                          'CLDLO'    , 'SOLAR'         ,
                          'CLDMD'    , 'SOLAR'         ,
                          'CLDHI'    , 'SOLAR'         ,
                          'SPLAND'   , 'SURFACE'       ,
                          'SPWATR'   , 'SURFACE'       ,
                          'RUNSURF'  , 'SURFACE'       , 'RUNOFF' ,
                          'BASEFLOW' , 'SURFACE'       ,
                          'EMIS'     , 'SURFACE'       ,
                          'CT'       , 'SURFACE'       ,
                          'CQ'       , 'SURFACE'       ,
                          'CN'       , 'SURFACE'       ,
                          'CM'       , 'SURFACE'       ,
                          'RI'       , 'SURFACE'       , 'RISFC' ,
                          'LAI'      , 'SURFACE'       ,
                          'GRN'      , 'SURFACE'       ,
                          'SNOMAS'   , 'SURFACE'       ,
                          'ITY'      , 'SURFACE'       , 'VEGTYPE' ,
                          'WET1'     , 'SURFACE'       ,
                          'WET2'     , 'SURFACE'       ,
                          'WET3'     , 'SURFACE'       ,
                          'TSOIL1'   , 'SURFACE'       ,
                          'TSOIL2'   , 'SURFACE'       ,
                          'FRLAND'   , 'SURFACE'       ,
                          'FRLANDICE', 'SURFACE'       ,
                          'FRLAKE'   , 'SURFACE'       ,
                          'FRACI'    , 'SURFACE'       , 'FRSEAICE' ,
                          'FROCEAN'  , 'SURFACE'       ,
                          'USTAR'    , 'SURFACE'       ,
                          'Z0'       , 'SURFACE'       ,
                          'Z0H'      , 'SURFACE'       ,
                          'LHFX'     , 'SURFACE'       ,
                          'SH'       , 'SURFACE'       , 'SHFX'     ,
                          'EVAP'     , 'SURFACE'       ,
                          'TAUX;TAUY', 'SURFACE'       ,
                          'RHOS'     , 'SURFACE'       ,
                          'U2M;V2M'  , 'SURFACE'       ,
                          'T2M'      , 'SURFACE'       ,
                          'Q2M'      , 'SURFACE'       ,
                          'U10N;V10N', 'SURFACE'       ,
                          'U10M;V10M', 'SURFACE'       ,
                          'T10M'     , 'SURFACE'       ,
                          'Q10M'     , 'SURFACE'       ,
                          'U50M;V50M', 'SURFACE'       ,
                          'GUST'     , 'SURFACE'       ,
                          'VENT'     , 'SURFACE'       ,
                          'ASNOW'    , 'SURFACE'       ,
                          'RADSRF'   , 'RADIATION'     ,
                          'TBISCCP'   , 'SATSIM'       ,
                          'FLNS'      , 'IRRAD'        ,
                          'FLNSC'     , 'IRRAD'        ,
                          'FLNSA'     , 'IRRAD'        , 'FLNSCNA'   ,
                          'OLR'       , 'IRRAD'        ,
                          'OLC'       , 'IRRAD'        , 'OLRC'      ,
                          'OLCC5'     , 'IRRAD'        , 'OLRCC5'    ,
                          'OLA'       , 'IRRAD'        , 'OLRCNA'    ,
                          'LWS'       , 'IRRAD'        ,
                          'LCS'       , 'IRRAD'        , 'LWSC'      ,
                          'LCSC5'     , 'IRRAD'        , 'LWSCC5'    ,
                          'LAS'       , 'IRRAD'        , 'LWSCNA'    ,
                          'SFCEM'     , 'IRRAD'        ,
                          'CLDTMP'    , 'SOLAR'        , 'SWCLDTMP'  ,
                          'CLDPRS'    , 'SOLAR'        , 'SWCLDPRS'  ,
                          'OSR'       , 'SOLAR'        ,
                          'OSRCLR'    , 'SOLAR'        ,
                          'RSR'       , 'SOLAR'        , 'SWTNET'    ,
                          'RSC'       , 'SOLAR'        , 'SWTNETC'   ,
                          'RSCNA'     , 'SOLAR'        , 'SWTNETCNA' ,
                          'RSRNA'     , 'SOLAR'        , 'SWTNETNA'  ,
                          'SLRTP'     , 'SOLAR'        , 'RADSWT'    ,
                          'SLRSF'     , 'SOLAR'        , 'SWGDWN'    ,
                          'SLRSFC'    , 'SOLAR'        , 'SWGDWNC'   ,
                          'RSRS'      , 'SOLAR'        , 'SWGNET'    ,
                          'RSCS'      , 'SOLAR'        , 'SWGNETC'   ,
                          'RSRSNA'    , 'SOLAR'        , 'SWGNETNA'  ,
                          'RSCSNA'    , 'SOLAR'        , 'SWGNETCNA' ,
                          'ALBEDO'    , 'SOLAR'        ,
                          'ALBVR'     , 'SOLAR'        ,
                          'ALBVF'     , 'SOLAR'        ,
                          'ALBNR'     , 'SOLAR'        ,
                          'ALBNF'     , 'SOLAR'        ,
                          'EVLAND'    , 'SURFACE'      ,
                          'LHLAND'    , 'SURFACE'      ,
                          'SHLAND'    , 'SURFACE'      ,
                          'SWLAND'    , 'SURFACE'      ,
                          'LWLAND'    , 'SURFACE'      ,
                          'GHLAND'    , 'SURFACE'      ,
                          'SMLAND'    , 'SURFACE'      ,
                          'TWLAND'    , 'SURFACE'      ,
                          'TELAND'    , 'SURFACE'      ,
# additonal exports for skin SST
                          'EVAPOUT'  , 'SURFACE'  ,
                          'COSZ'     , 'SOLAR'    ,
                          'DCOOL'    , 'SURFACE'  ,
                          'DWARM'    , 'SURFACE'  ,
                          'TDROP'    , 'SURFACE'  , 'DELT_COOL' ,
                          'TS_FOUND' , 'SURFACE'  , 'BULK_SST' ,
                          'TDEL'     , 'SURFACE'  ,
                          'BCOOL'    , 'SURFACE'  ,
                          'LCOOL'    , 'SURFACE'  ,
                          'TBAR'     , 'SURFACE'  ,
                          'USTARW'   , 'SURFACE'  ,
                          'SWCOOL'   , 'SURFACE'  ,
                          'QCOOL'    , 'SURFACE'  ,
                          'DELTS'    , 'SURFACE'  ,
                          'QWARM'    , 'SURFACE'  ,
                          'SWWARM'   , 'SURFACE'  ,
                          'LANGM'    , 'SURFACE'  ,
                          'PHIW'     , 'SURFACE'  ,
                          'TAUTW'    , 'SURFACE'  ,
                          'ZETA_W'   , 'SURFACE'  ,
                          ::

  geosgcm_meltwtr.template:  '%y4%m2%d2_%h2%n2z.nc4',
  geosgcm_meltwtr.archive:   '%c/Y%y4',
  geosgcm_meltwtr.format:    'CFIO',
  geosgcm_meltwtr.mode:      'time-averaged',
  geosgcm_meltwtr.frequency:  240000,
  geosgcm_meltwtr.ref_time:   210000,
  geosgcm_meltwtr.regrid_name: 'PE2880x17280-CF'
  geosgcm_meltwtr.regrid_exch: 'tile.bin',
  geosgcm_meltwtr.grid_label: PC720x361-DC
  geosgcm_meltwtr.fields:    'MELTWTR'      , 'LANDICE'     ,
                             ::

  geosgcm_landice.template:  '%y4%m2%d2_%h2%n2z.nc4',
  geosgcm_landice.archive:   '%c/Y%y4',
  geosgcm_landice.format:    'CFIO',
  geosgcm_landice.mode:      'time-averaged',
  geosgcm_landice.frequency:  240000,
  geosgcm_landice.ref_time:   210000,
  geosgcm_landice.regrid_name: 'PE2880x17280-CF' 
  geosgcm_landice.regrid_exch: 'tile.bin',
  geosgcm_landice.grid_label: PC720x361-DC
  geosgcm_landice.fields:    'SNOMAS_GL'     , 'LANDICE'     ,
                             'SNOWDP_GL'     , 'LANDICE'     ,
                             'TST'           , 'LANDICE'     ,
                             'ASNOW_GL'      , 'LANDICE'     ,
                             'RUNOFF'        , 'LANDICE'     ,
                             'WESNSC'        , 'LANDICE'     ,
                             'SNDZSC'        , 'LANDICE'     ,
                             'WESNPREC'      , 'LANDICE'     ,
                             'SNDZPREC'      , 'LANDICE'     ,
                             'SNDZ1PERC'     , 'LANDICE'     ,
                             'WESNBOT'       , 'LANDICE'     ,
                             'IMELT'         , 'LANDICE'     ,
                             'SNOWALB'       , 'LANDICE'     ,
                             'SNICEALB'      , 'LANDICE'     ,
                             'ACCUM'         , 'LANDICE'     ,
                             'RAINRFZ'       , 'LANDICE'     ,
                             'SHOUT'         , 'LANDICE'     ,
                             'HLATN'         , 'LANDICE'     ,
                             'HLWUP'         , 'LANDICE'     ,
                             'LWNDSRF'       , 'LANDICE'     ,
                             'SWNDSRF'       , 'LANDICE'     ,
                             ::

  geosgcm_snowlayer.template:  '%y4%m2%d2_%h2%n2z.nc4',
  geosgcm_snowlayer.archive:   '%c/Y%y4',
  geosgcm_snowlayer.format:    'CFIO',
  geosgcm_snowlayer.mode:      'time-averaged',
  geosgcm_snowlayer.frequency:  240000,
  geosgcm_snowlayer.ref_time:   210000,
  geosgcm_snowlayer.regrid_name: 'PE2880x17280-CF'
  geosgcm_snowlayer.regrid_exch: 'tile.bin',
  geosgcm_snowlayer.grid_label: PC720x361-DC
  geosgcm_snowlayer.fields:    'RHOSNOW'       , 'LANDICE'     ,
                               'TSNOW'         , 'LANDICE'     ,
                               'WSNOW'         , 'LANDICE'     ,
                               'ZSNOW'         , 'LANDICE'     ,
                               'DRHOS0'        , 'LANDICE'     ,
                               'WESNEX'        , 'LANDICE'     ,
                               'WESNPERC'      , 'LANDICE'     ,
                               'WESNDENS'      , 'LANDICE'     ,
                               'WESNREPAR'     , 'LANDICE'     ,
                               'TICE0'         , 'LANDICE'     ,
                               ::

  geosgcm_moist.template:  '%y4%m2%d2_%h2%n2z.nc4',
  geosgcm_moist.archive:   '%c/Y%y4',
  geosgcm_moist.format:    'CFIO',
  geosgcm_moist.mode:      'time-averaged',
  geosgcm_moist.frequency:  240000,
  geosgcm_moist.ref_time:   210000,
  geosgcm_moist.grid_label: PC720x361-DC
  geosgcm_moist.vscale:     100.0,
  geosgcm_moist.vunit:     'hPa',
  geosgcm_moist.vvars:     'log(PLE)' , 'DYN'          ,
  geosgcm_moist.levels:     1000 975 950 925 900 875 850 825 800 775 750 725 700 650 600 550 500 450 400 350 300 250 200 150 100 70 50 40 30 20 10 7 5 4 3 2 1 0.7 0.5 0.4 0.3 0.2 0.1 0.07 0.05 0.04 0.03 0.02,
  geosgcm_moist.fields:    'PHIS'    , 'AGCM'          ,
                           'Q'       , 'MOIST'         , 'QV' ,
                           'QL'      , 'MOIST'         ,
                           'QI'      , 'MOIST'         ,
                           'QRAIN'   , 'MOIST'         , 'QR' ,
                           'QSNOW'   , 'MOIST'         , 'QS' ,
                           'QGRAUPEL', 'MOIST'         , 'QG' ,
                           'RI'      , 'MOIST'         , 'RICE'   ,
                           'RL'      , 'MOIST'         , 'RLIQ'   ,
                           'RH1'     , 'MOIST'         ,
                           'dye_conserv'    , 'TR'   ,
                           'CNV_MF0' , 'MOIST'         , 'CNVMF0' ,
                           'CNV_MFD' , 'MOIST'         , 'CNVMFD' ,
                           'CNV_MFC' , 'MOIST'         , 'CNVMFC' ,
                           'REV_CN'  , 'MOIST'         , 'REVCN'  ,
                           'REV_AN'  , 'MOIST'         , 'REVAN'  ,
                           'REV_LS'  , 'MOIST'         , 'REVLS'  ,
                           'RSU_CN'  , 'MOIST'         , 'RSUCN'  ,
                           'RSU_AN'  , 'MOIST'         , 'RSUAN'  ,
                           'RSU_LS'  , 'MOIST'         , 'RSULS'  ,
                           'THIM'    , 'PHYSICS'       ,
                           'EVAPC'   , 'MOIST'         ,
                           'SUBLC'   , 'MOIST'         ,
                           'FCLD'    , 'MOIST'         ,
                           'CLCN'    , 'MOIST'         ,
                           'CLLS'    , 'MOIST'         ,
                           'QICN'    , 'MOIST'         ,
                           'QILS'    , 'MOIST'         ,
                           'QLCN'    , 'MOIST'         ,
                           'QLLS'    , 'MOIST'         ,
                           'REV_LS+REV_AN+EVAPC' , 'MOIST', 'REVAP_MIC' ,
                           'RSU_LS+RSU_AN+SUBLC' , 'MOIST', 'RSUBL_MIC' ,
                           'DQCDTCN'    , 'MOIST'         , 'DQCDT_CNV' ,
                           'DQDT'       , 'MOIST'         , 'DQVDT_TOT' ,
                           'DQLDT'      , 'MOIST'         , 'DQLDT_TOT' ,
                           'DQIDT'      , 'MOIST'         , 'DQIDT_TOT' ,
                           'DQVDT_SC'   , 'MOIST'         , 'DQVDT_SCU' ,
                           'DQLDT_SC'   , 'MOIST'         , 'DQLDT_SCU' ,
                           'DQIDT_SC'   , 'MOIST'         , 'DQIDT_SCU' ,
                           'DQRDT_SC'   , 'MOIST'         , 'DQRDT_SCU' ,
                           'DQSDT_SC'   , 'MOIST'         , 'DQSDT_SCU' ,
                           'DQVDT_micro', 'MOIST'         , 'DQVDT_MIC' ,
                           'DQLDT_micro', 'MOIST'         , 'DQLDT_MIC' ,
                           'DQIDT_micro', 'MOIST'         , 'DQIDT_MIC' ,
                           'DQRDT_micro', 'MOIST'         , 'DQRDT_MIC' ,
                           'DQSDT_micro', 'MOIST'         , 'DQSDT_MIC' ,
                           'DQGDT_micro', 'MOIST'         , 'DQGDT_MIC' ,
                           'DQADT_micro', 'MOIST'         , 'DQADT_MIC' ,
                           'DUDT_micro' , 'MOIST'         , 'DUDT_MIC'  ,
                           'DVDT_micro' , 'MOIST'         , 'DVDT_MIC'  ,
                           'DTDT_micro' , 'MOIST'         , 'DTDT_MIC'  ,
                           'DTDT_macro' , 'MOIST'         , 'DTDT_MAC'  ,
                           'DQVDT_macro', 'MOIST'         , 'DQVDT_MAC' ,
                           'DQLDT_macro', 'MOIST'         , 'DQLDT_MAC' ,
                           'DQIDT_macro', 'MOIST'         , 'DQIDT_MAC' ,
                           'DQADT_macro', 'MOIST'         , 'DQADT_MAC' ,
                           ::

  geosgcm_turb.template:  '%y4%m2%d2_%h2%n2z.nc4',
  geosgcm_turb.archive:   '%c/Y%y4',
  geosgcm_turb.format:    'CFIO',
  geosgcm_turb.mode:      'time-averaged',
  geosgcm_turb.frequency:  240000,
  geosgcm_turb.ref_time:   210000,
  geosgcm_turb.grid_label: PC720x361-DC
  geosgcm_turb.vscale:     100.0,
  geosgcm_turb.vunit:     'hPa',
  geosgcm_turb.vvars:     'log(PLE)' , 'DYN'          ,
  geosgcm_turb.levels:     1000 975 950 925 900 875 850 825 800 775 750 725 700 650 600 550 500 450 400 350 300 250 200 150 100 70 50 40 30 20 10 7 5 4 3 2 1 0.7 0.5 0.4 0.3 0.2 0.1 0.07 0.05 0.04 0.03 0.02,
  geosgcm_turb.fields:    'INTDIS'   , 'TURBULENCE'    ,
                          'TOPDIS'   , 'TURBULENCE'    ,
                          'SRFDIS'   , 'TURBULENCE'    ,
                          'DBUOY'    , 'TURBULENCE'    ,
                          'WERAD'    , 'TURBULENCE'    ,
                          'KH'       , 'TURBULENCE'    ,
                          'KM'       , 'TURBULENCE'    ,
                          'KHLS'     , 'TURBULENCE'    ,
                          'KMLS'     , 'TURBULENCE'    ,
                          'EKH'      , 'TURBULENCE'    ,
                          'EKM'      , 'TURBULENCE'    ,
                          'KHSFC'    , 'TURBULENCE'    ,
                          'KHRAD'    , 'TURBULENCE'    ,
                          'RI'       , 'TURBULENCE'    ,
                          'DU'       , 'TURBULENCE'    ,
                          ::

  geosgcm_gwd.template:  '%y4%m2%d2_%h2%n2z.nc4',
  geosgcm_gwd.archive:   '%c/Y%y4',
  geosgcm_gwd.format:    'CFIO',
  geosgcm_gwd.mode:      'time-averaged',
  geosgcm_gwd.frequency:  240000,
  geosgcm_gwd.ref_time:   210000,
  geosgcm_gwd.grid_label: PC720x361-DC
  geosgcm_gwd.vscale:     100.0,
  geosgcm_gwd.vunit:     'hPa',
  geosgcm_gwd.vvars:     'log(PLE)' , 'DYN'          ,
  geosgcm_gwd.levels:     1000 975 950 925 900 875 850 825 800 775 750 725 700 650 600 550 500 450 400 350 300 250 200 150 100 70 50 40 30 20 10 7 5 4 3 2 1 0.7 0.5 0.4 0.3 0.2 0.1 0.07 0.05 0.04 0.03 0.02,
  geosgcm_gwd.fields:    'DUDT_ORO;DVDT_ORO', 'GWD', 'DUDTORO;DVDTORO' ,
                         'DUDT_BKG;DVDT_BKG', 'GWD', 'DUDTBKG;DVDTBKG' ,
                         'DUDT_RAY;DVDT_RAY', 'GWD', 'DUDTRAY;DVDTRAY' ,
                         'TAUOROX;TAUOROY'  , 'GWD',
                         'TAUBKGX;TAUBKGY'  , 'GWD',
                         'DTDT_ORO',          'GWD', 'DTDTORO' ,
                         'DTDT_BKG',          'GWD', 'DTDTBKG' ,
                         'DTDT_RAY',          'GWD', 'DTDTRAY' ,
                         ::

  geosgcm_tend.template:  '%y4%m2%d2_%h2%n2z.nc4',
  geosgcm_tend.archive:   '%c/Y%y4',
  geosgcm_tend.format:    'CFIO',
  geosgcm_tend.mode:      'time-averaged',
  geosgcm_tend.frequency:  240000,
  geosgcm_tend.ref_time:   210000,
  geosgcm_tend.grid_label: PC720x361-DC
  geosgcm_tend.vscale:     100.0,
  geosgcm_tend.vunit:     'hPa',
  geosgcm_tend.vvars:     'log(PLE)' , 'DYN'          ,
  geosgcm_tend.levels:     1000 975 950 925 900 875 850 825 800 775 750 725 700 650 600 550 500 450 400 350 300 250 200 150 100 70 50 40 30 20 10 7 5 4 3 2 1 0.7 0.5 0.4 0.3 0.2 0.1 0.07 0.05 0.04 0.03 0.02,
  geosgcm_tend.fields:    'DUDTDYN;DVDTDYN', 'DYN'     ,
                          'UIT;VIT'        , 'PHYSICS' ,  'DUDTTRB;DVDTTRB' ,
                          'DUDT;DVDT'      , 'MOIST'   ,  'DUDTMST;DVDTMST' ,
                          'DUDT;DVDT'      , 'GWD'     ,  'DUDTGWD;DVDTGWD' ,
                          'DTDTDYN'  , 'DYN'           ,
                          'TIM'      , 'PHYSICS'       ,  'DTDTMST'    ,
                          'TIT'      , 'PHYSICS'       ,  'DTDTTRB'    ,
                          'TTMGW'    , 'GWD'           ,  'DTDTGWD'    ,
                          'RADLW'    , 'RADIATION'     ,  'DTDTLW'     ,
                          'RADLWC'   , 'RADIATION'     ,  'DTDTLWC'    ,
                          'RADLWCNA' , 'RADIATION'     ,  'DTDTLWCNA'  ,
                          'RADSW'    , 'RADIATION'     ,  'DTDTSW'     ,
                          'RADSWC'   , 'RADIATION'     ,  'DTDTSWC'    ,
                          'RADSWNA'  , 'RADIATION'     ,  'DTDTSWNA'   ,
                          'RADSWCNA' , 'RADIATION'     ,  'DTDTSWCNA'  ,
                          'TIF'      , 'PHYSICS'       ,  'DTDTFRI'    ,
                          'DQVDTDYN' , 'DYN'           ,
                          'DQDT'     , 'MOIST'         ,  'DQVDTMST'   ,
                          'QVIT'     , 'PHYSICS'       ,  'DQVDTTRB'   ,
                          'H2O_TEND' , 'CHEMISTRY'     ,  'DQVDTCHM'   ,
                          'DPDTPHY'  , 'PHYSICS'       ,
                          ::

  geosgcm_budi.template:    '%y4%m2%d2_%h2%n2z.nc4',
  geosgcm_budi.archive:     '%c/Y%y4',
  geosgcm_budi.format:      'CFIO',
  geosgcm_budi.conservative: 1,
  geosgcm_budi.frequency:    010000,
  geosgcm_budi.grid_label:   PC720x361-DC
  geosgcm_budi.fields:      'TQV'   , 'AGCM'  ,
                            'TQI'   , 'AGCM'  ,
                            'TQL'   , 'AGCM'  ,
                            'TOX'   , 'AGCM'  ,
                            'MASS'  , 'AGCM'  ,
                             ::

  geosgcm_buda.template:    '%y4%m2%d2_%h2%n2z.nc4',
  geosgcm_buda.archive:     '%c/Y%y4',
  geosgcm_buda.format:      'CFIO',
  geosgcm_buda.mode:        'time-averaged',
  geosgcm_buda.conservative: 1,
  geosgcm_buda.frequency:    010000,
  geosgcm_buda.grid_label:   PC720x361-DC
  geosgcm_buda.fields:      'DMDTDYN'       , 'DYN'         , 'DMDTDYN'     ,
                            'DMDTANA'       , 'DYN'         , 'DMDTANA'     ,
                            'DMDT'          , 'PHYSICS'     , 'DMDTPHY'     ,
                            'DQVDTDYNINT'   , 'DYN'         , 'DQVDTDYN'    ,
                            'DQVDTPHYINT'   , 'PHYSICS'     , 'DQVDTPHY'    ,
                            'DQVDTANAINT'   , 'DYN'         , 'DQVDTANA'    ,
                            'DQVDTMSTINT'   , 'PHYSICS'     , 'DQVDTMST'    ,
                            'DQVDTTRBINT'   , 'PHYSICS'     , 'DQVDTTRB'    ,