# Packages
 &PACKAGES
 useGMRedi=.TRUE.,
 useDiagnostics=.false.,
 useMNC=.false.,
 useEXF = .TRUE.,
 useCAL = .TRUE.,
 &
