# Packages
 &PACKAGES
 useCAL         = .TRUE.,
 useSEAICE      = .TRUE.,
#useDiagnostics = .TRUE.,
 &
