# Packages
 &PACKAGES
 useGMRedi=.TRUE.,
 useDiagnostics=.TRUE.,
 &end
