# Packages
 &PACKAGES
 useCAL         = .TRUE.,
 useSEAICE      = .TRUE.,
 useKPP         = .TRUE.,
 useFRAZIL      = .TRUE.,
# useTIDES       = .TRUE.,
 useMYPACKAGE   = .TRUE.,
 &
