# SEAICE parameters
 &SEAICE_PARM01
  usePW79thermodynamics = .FALSE.,
#
  SEAICE_strength       = 2.6780e+04,
  OCEAN_drag            = 8.1541e-04,
  SEAICE_waterDrag      = 5.169855072463768E-3,
  SEAICE_drag           = 2.E-3,
#
  LSR_ERROR             = 1.E-5,
  SEAICElinearIterMax   = 300,
  SEAICEnonLinIterMax   = 10,
  SEAICEuseStrImpCpl    = .TRUE.,
#
  AreaFile           = '/nobackupp11/dmenemen/DYAMOND/llc2160_IC/SIarea.0000706320.data',
  HeffFile           = '/nobackupp11/dmenemen/DYAMOND/llc2160_IC/SIheff.0000706320.data',
  HsaltFile          = '/nobackupp11/dmenemen/DYAMOND/llc2160_IC/SIhsalt.0000706320.data',
  HsnowFile          = '/nobackupp11/dmenemen/DYAMOND/llc2160_IC/SIhsnow.0000706320.data',
  UiceFile           = '/nobackupp11/dmenemen/DYAMOND/llc2160_IC/SIuice.0000706320.data',
  ViceFile           = '/nobackupp11/dmenemen/DYAMOND/llc2160_IC/SIvice.0000706320.data',
 &

 &SEAICE_PARM03
 &
