# SEAICE parameters
 &SEAICE_PARM01
  usePW79thermodynamics= .FALSE.,
#
  SEAICE_strength    = 2.6780e+04,
  OCEAN_drag         = 8.1541e-04,
  SEAICE_waterDrag   = 5.169855072463768E-3,
  SEAICE_drag = 2.E-3,
#
  LSR_ERROR          = 1.E-5,
  SEAICElinearIterMax=  200,
  SEAICEnonLinIterMax = 10,
  SEAICEuseStrImpCpl=.TRUE.,
  SEAICEadvScheme    = 7,
  SEAICEwriteState   = .FALSE.,
 &

 &SEAICE_PARM03
 &
