# Packages
 &PACKAGES
 useCAL         = .TRUE.,
 useEXF         = .FALSE.,
 useSEAICE      = .TRUE.,
 useKPP         = .TRUE.,
 useFRAZIL      = .TRUE.,
 useTIDES       = .TRUE.,
 useMYPACKAGE   = .TRUE.,
 &
