# Packages
 &PACKAGES
 useKPP         = .TRUE.,
 useFRAZIL      = .TRUE.,
 /
