# Packages
 &PACKAGES
 useGMRedi=.TRUE.,
 &end
