# Packages
 &PACKAGES
 useSEAICE      = .TRUE.,
 useKPP         = .TRUE.,
 useFRAZIL      = .TRUE.,
 &
