# Packages
 &PACKAGES
 useGMRedi          = .TRUE.,
 useGGL90           = .TRUE.,
 useDiagnostics     = .TRUE.,
 &
